РЉЄРЉЄРЉЄ
title = 'Syntax Test'
filename = 'syntax-test'
date = 'yyyy/mm/dd'
version = '1.2.3'
author = cmd("git config user.name")
attrs = {'author': 'Foo Bar', 'val': 'xXxXx'}
РЉЄРЉЄРЉЄ

Рќ«* Prologue

Рќ«* Table of contents

┬цtocРЪдlevel="1"РЪДРИеРИЕ

Рќ« Section

Section Lv.1 ATX-style
======================

Section Lv.2 ATX-style
----------------------

Section Lv.1?2? invalid
----====----====----===

Рќ« Section Lv.1
Рќ«Рќ« Section Lv.2
Рќ«Рќ«Рќ« Section Lv.3
Рќ«Рќ«Рќ«Рќ« Section Lv.4
Рќ«Рќ«Рќ«Рќ«Рќ« Section Lv.5
Рќ«Рќ«Рќ«Рќ«Рќ«Рќ« Section Lv.6
Рќ«Рќ«Рќ«Рќ«Рќ«Рќ«Рќ« Section Lv.7
Рќ«Рќ«Рќ«Рќ«Рќ«Рќ«Рќ«Рќ« Section Lv.8
Рќ»Рќ»Рќ»Рќ» Section Lv.4
Рќ»Рќ»Рќ»Рќ»Рќ» Section Lv.5
Рќ»Рќ»Рќ»Рќ»Рќ»Рќ» Section Lv.6
Рќ»Рќ»Рќ»Рќ»Рќ»Рќ»Рќ» Section Lv.7
Рќ»Рќ»Рќ»Рќ»Рќ»Рќ»Рќ»Рќ» Section Lv.8

Рќ« Block-markup

Рќ«Рќ« Paragraph

Paragraph text text text.
New line but ignoreed linebreak code.

Next paragraph text text text.
paragraph separated by empty line.

Third paragraph with paragraph terminater.Рі╣
New line as fourth paragraph.

Paragraph with linebreak symbol.Рє▓
New line.

Рќ«Рќ« BulletList РЪдblistРЪД
Рђб List item 1
РђбРђб List item 1-1
РђбРђбРђб List item 1-1-1
РђбРђбРђб List item 1-1-2
РђбРђб List item 1-2
РђбРђбРђб List item 1-2-1
РђбРђбРђб List item 1-2-2
Рђб List item 2
РЌЃ
Рђб List item new 1

Рќ«Рќ«Рќ« other leveling symbol

Рђб List item 1
­љг╣ Рђб List item 1-1
­љг╣ ­љг╣ Рђб List item 1-1-1
­љг╣ ­љг╣ Рђб List item 1-1-2
­љг╣ Рђб List item 1-2
­љг╣ ­љг╣ Рђб List item 1-2-1
­љг╣ ­љг╣ Рђб List item 1-2-2
Рђб List item 2
РЌЃ
Рђб List item new 1

Рќ«Рќ« OrderedList РЪдolistРЪД

ЖЊЙ List item 1
ЖЊЙЖЊЙ List item 1-1
ЖЊЙЖЊЙЖЊЙ List item 1-1-1
ЖЊЙЖЊЙЖЊЙ List item 1-1-2
ЖЊЙЖЊЙ List item 1-2
ЖЊЙЖЊЙЖЊЙ List item 1-2-1
ЖЊЙЖЊЙЖЊЙ List item 1-2-2
ЖЊЙ List item 2
РЌЃ
ЖЊЙ List item new 1

Рќ«Рќ«Рќ« other leveling symbol

ЖЊЙ List item 1
­љг╣ ЖЊЙ List item 1-1
­љг╣ ­љг╣ ЖЊЙ List item 1-1-1
­љг╣ ­љг╣ ЖЊЙ List item 1-1-2
­љг╣ ЖЊЙ List item 1-2
­љг╣ ­љг╣ ЖЊЙ List item 1-2-1
­љг╣ ­љг╣ ЖЊЙ List item 1-2-2
ЖЊЙ List item 2
РЌЃ
ЖЊЙ List item new 1

Рќ«Рќ«Рќ« Multi Paragraph

ЖЊЙ List item 1 text text.
  new line text text.

  new paragraph text text 1.
  ЖЊЙЖЊЙ List item 1-1

    new paragraph text text 2.

    new paragraph text text 3.

  ЖЊЙЖЊЙ List item 1-2

    new paragraph text text 4.

    new paragraph text text 5.
  РЌЃРЌЃ
  ЖЊЙЖЊЙ List item new 1-1

    new paragraph text text 6.
  РЌЃРЌЃ
  new paragraph text text 7.

  new paragraph text text 8.

ЖЊЙ List item 2

  new paragraph text text 9.

  new paragraph text text 10.

РЌЃ
new paragraph text text new 1.

Рќ«Рќ« DescriptionList

рЏЮTerm 1рЏЮ List item 1
рЏЮрЏЮTerm 1-1рЏЮ List item 1-1
рЏЮрЏЮрЏЮTerm 1-1-1рЏЮ List item 1-1-1
рЏЮрЏЮрЏЮTerm 1-1-2рЏЮ List item 1-1-2
рЏЮрЏЮTerm 1-2рЏЮ List item 1-2
рЏЮрЏЮрЏЮTerm 1-2-1рЏЮ List item 1-2-1
рЏЮрЏЮрЏЮTerm 1-2-2рЏЮ List item 1-2-2
рЏЮTerm 2рЏЮ ListрЏЮ item 2
РЌЃ
рЏЮListрЏЮ item new 1
РЌЃ
рЏЮTerm 1РЌЃрЏЮ List item 1

next paragraph.
рЏЮрЏЮTerm 1-1РЌЃрЏЮ List item 1-1

next paragraph.
рЏЮрЏЮрЏЮTerm 1-1-1РЌЃрЏЮ List item 1-1-1
рЏЮрЏЮрЏЮTerm 1-1-2РЌЃрЏЮ List item 1-1-2
рЏЮрЏЮTerm 1-2РЌЃрЏЮ List item 1-2
рЏЮрЏЮрЏЮTerm 1-2-1РЌЃрЏЮ List item 1-2-1
рЏЮрЏЮрЏЮTerm 1-2-2РЌЃрЏЮ List item 1-2-2
рЏЮTerm 2РЌЃрЏЮ ListрЏЮ item 2

Рќ«Рќ«Рќ« other leveling symbol

рЏЮTerm 1рЏЮ List item 1
­љг╣ рЏЮTerm 1-1рЏЮ List item 1-1
­љг╣ ­љг╣ рЏЮTerm 1-1-1рЏЮ List item 1-1-1
­љг╣ ­љг╣ рЏЮTerm 1-1-2рЏЮ List item 1-1-2
­љг╣ рЏЮTerm 1-2рЏЮ List item 1-2
­љг╣ ­љг╣ рЏЮTerm 1-2-1рЏЮ List item 1-2-1
­љг╣ ­љг╣ рЏЮTerm 1-2-2рЏЮ List item 1-2-2
рЏЮTerm 2рЏЮ ListрЏЮ item 2
РЌЃ
рЏЮListрЏЮ item new 1
РЌЃ
рЏЮTerm 1РЌЃрЏЮ List item 1

Рќ«Рќ« CheckList

Рђб[ ] List item 1
РђбРђб[-] List item 1-1
РђбРђбРђб[x] List item 1-1-1
РђбРђбРђб[ ] List item 1-1-2
РђбРђб[x] List item 1-2
РђбРђбРђб[x] List item 1-2-1
РђбРђбРђб[x] List item 1-2-2
Рђб[ ] List item 2
РЌЃ
Рђб[x] List item new 1
РЌЃ
[ ] unchecked, [x] checked, [-] indeterminate

Рќ«Рќ«Рќ« other leveling symbol

Рђб[ ] List item 1
­љг╣ Рђб[-] List item 1-1
­љг╣ ­љг╣ Рђб[x] List item 1-1-1
­љг╣ ­љг╣ Рђб[ ] List item 1-1-2
­љг╣ Рђб[x] List item 1-2
­љг╣ ­љг╣ Рђб[x] List item 1-2-1
­љг╣ ­љг╣ Рђб[x] List item 1-2-2
Рђб[ ] List item 2
РЌЃ
Рђб[x] List item new 1

Рќ«Рќ« Mixed List

Рђб List item 1
ЖЊЙЖЊЙ List item 1-1
рЏЮрЏЮрЏЮAрЏЮ List item 1-1-1
рЏЮрЏЮрЏЮBрЏЮ List item 1-1-2
ЖЊЙЖЊЙ List item 1-2
РђбРђбРђб[x] List item 1-2-1
РђбРђбРђб[ ] List item 1-2-2
Рђб List item 2

Рќ«Рќ«Рќ« other leveling symbol

Рђб List item 1
­љг╣ ЖЊЙ List item 1-1
­љг╣ ­љг╣ рЏЮAрЏЮ List item 1-1-1
­љг╣ ­љг╣ рЏЮBрЏЮ List item 1-1-2
­љг╣ ЖЊЙ List item 1-2
­љг╣ ­љг╣ Рђб[x] List item 1-2-1
­љг╣ ­љг╣ Рђб[ ] List item 1-2-2
Рђб List item 2

Рќ«Рќ« Scoped Block

Рђб РдЃList item 1
  Рђб List item 1-1
  Рђб РдЃList item 1-2
    ЖЊЙ List item 1-2-1
    ЖЊЙ List item 1-2-2
  Рдё
  рЏЮAрЏЮ РдЃList item 1-3-1РдёРдЃnew paragraphРдё
  рЏЮBрЏЮ List item 1-3-2
Рдё
Рђб List item 2

РЌЃ
    РдЃParagraph 1.РдёРдЃParagraph 2.Рдё

    Рђб РдЃList item 1
      ЖЊЙ РдЃList item 1-1
        рЏЮAрЏЮ List item 1-1-1
        рЏЮBрЏЮ List item 1-1-2
        Рдё
      ЖЊЙ РдЃList item 1-2
        Рђб[x] List item 1-2-1
        Рђб[ ] List item 1-2-2
        РдёРдё
    Рђб List item 2

Рќ«Рќ« Table

Рќ«Рќ«Рќ« BasicTable

| data11 | data12 | data13 |
| data21 | data22 | data23 |

| head11 | head12 | head13 |
| head21 | head22 | head23 |
|:-------|:------:|-------:|
| data11 | data12 | data13 |
| dataРИї21РИї | data22 | data23 |
| a | b | c |

|:------:|-------:|+-------|
| data11 | data12 | data13 |
| A | B | C |

| head21 | head22 | head23 |
|+-------|+------+|-------+|
| data11 | data12 | data13 |

| head11 | head12 | РЈ┤      | РЈ┤      |
|--------|--------|--------|--------|
| data11 | data12 | data13 | data14 |
| data21 | data22 | РЈ┤      | data24 |
| data31 | РЈХ      | РЈ┤      | РЈХ      |
| data41 | data42 | РЈ┤      | data44 |
| data51 | data52 | data53 |РЈ┤data54 |
| data61 |РЈХdata62 |РЈХdata63 |РЈ┤data64 |

РЪдw="600px" widths="1,2,3"РЪД
| head11 | head12 | head13 |
| head21 | head22 | head23 |
|:-------|:------:|-------:|
| data11 | data12 | data13 |
| data21 | data22 | data23 |

Рќ«Рќ«Рќ« ListTable

|===
Рђб РђбРђб head1
  РђбРђб head2
  РђбРђб head3
РЌЃ
Рђб РђбРђб data11
  РђбРђб data12
  РђбРђб data13
Рђб РђбРђб data21
  РђбРђб data22
  РђбРђб data23
===|

|===
Рђб РђбРђб head1
  РђбРђб head2
  РђбРђб РЈ┤
РЌЃ
Рђб РђбРђб data11
  РђбРђб data12
  РђбРђб data13
Рђб РђбРђб data21
  РђбРђб РЈХdata22
  РђбРђб data23
===|

|===РЪдalign="lcr"РЪД
Рђб РђбРђб head1
  РђбРђб head2
  РђбРђб head3
РЌЃ
Рђб РђбРђб data11
  РђбРђб data12
  РђбРђб ┬цimageРЪдalt="Alt Text"РЪДРИе./tglyph_64.pngРИЕ

Рђб РђбРђб РђбРђбРђб item1
     РђбРђбРђб item2
     РђбРђбРђб item3
  РђбРђб РИїdata22РИї
  РђбРђб data23

Рђб РђбРђб A
  РђбРђб B
  РђбРђб C
===|

|===РЪдcolspec="5l,3c,1r"РЪД
Рђб РђбРђб head1
  РђбРђб head2
  РђбРђб head3
РЌЃ
Рђб РђбРђб data11
  РђбРђб data12
  РђбРђб data13
Рђб РђбРђб data21
  РђбРђб data22
  РђбРђб data23
===|

|┬ц┬ц┬ц
Рђб РђбРђб head1
  РђбРђб head2
  РђбРђб head3
РЌЃ
Рђб РђбРђб data11
  РђбРђб data12
  РђбРђб data13
Рђб РђбРђб data21
  РђбРђб data22
  РђбРђб data23
┬ц┬ц┬ц

Рќ«Рќ«Рќ« Nested Table

|===
Рђб РђбРђб A
  РђбРђб B
    | a | b |
    | c | d |
  РђбРђб C
Рђб РђбРђб D
    |===
    Рђб РђбРђб a
      РђбРђб b
    Рђб РђбРђб c
      РђбРђб 
      |===
      Рђб РђбРђб a
        РђбРђб b
      Рђб РђбРђб c
        РђбРђб d
      ===|
    ===|
  РђбРђб E
  РђбРђб F
===|

|┬ц┬ц┬ц
Рђб РђбРђб A
  РђбРђб B
    | a | b |
    | c | d |
  РђбРђб C
Рђб РђбРђб D
    |┬ц┬ц┬ц
    Рђб РђбРђб a
      РђбРђб b
    Рђб РђбРђб c
      РђбРђб 
      |┬ц┬ц┬ц
      Рђб РђбРђб a
        РђбРђб b
      Рђб РђбРђб c
        РђбРђб d
      ┬ц┬ц┬ц
    ┬ц┬ц┬ц
  РђбРђб E
  РђбРђб F
┬ц┬ц┬ц

Рќ«Рќ« Figure

┬цfigureРИеcaptionРИЕ
┬цimageРЪдalt="Alt Text"РЪДРИе./tglyph_64.pngРИЕ

┬цfigureРИеcaptionРИЕ
[Not Image.]

┬цfigureРИеcaptionРИЕ
| head11 | head12 | head13 |
| head21 | head22 | head23 |
|--------|--------|--------|
| data11 | data12 | data13 |
| data21 | data22 | data23 |
| data31 | data32 | data33 |

Рќ«Рќ« QuoteBlock

> Quote text text text.
> new line text.
> > Nested quote text.
> return first quote.

> New quote text.

Рќ«Рќ« LiteralBlock

Unsupported

Рќ«Рќ« AdmonitionBlock

!NOTE! This is a note.
  new line text.

  admonition can include blocks.

  Рђб ATTENTION
  Рђб HINT
  Рђб NOTE
  Рђб TIP
  Рђб WARNNING

Рќ«Рќ« CodeBlock

РИїРИїРИїc
#include <stdio.h>
# include <stdlib.h>

int main()
{
  int x           = 1;
  long long int y = 2;
  char s[100] = "Good morning!\n";
  printf("Hello World!!\n");

  exit(0);
}
РИїРИїРИї

  РИїРИїРИїsh
  pushd ~

  cat .bashrc

  popd
  РИїРИїРИї

РИїРИїРИї
80 characters
12345678901234567890123456789012345678901234567890123456789012345678901234567890
РИїРИїРИї

РИїРИїРИїc
┬цincludeРИе./example.cРИЕ
РИїРИїРИї

Рќ«Рќ« CustomBlock

┬ц┬ц┬цgraphviz
digraph graph_name {
  alpha;
  beta;
  alpha -> beta;
}
┬ц┬ц┬ц

Рќ«Рќ« HorizonBlock

paragraph

====

paragraph

Рќ« Inline-markup

Рќ«Рќ« Text Decoration

The ­ЪЎ╝emphasis­ЪЎ╝ РДФstrongРДФ РђЌinsertedРђЌ ┬гdeleted┬г РДФ­ЪЎ╝strong & emphasis­ЪЎ╝РДФ text.

The ­ЪЎ╝emphasis РДФstrong РђЌinserted ┬гdeleted┬гРђЌРДФ­ЪЎ╝ text.

The xРїЃsupРїЃx xРїёsubРїёx text.

The РЂњvarРЂњ and РИїcodeРИї text.

рЏЮ--text=­ЪЎ╝val­ЪЎ╝рЏЮ set ­ЪЎ╝val­ЪЎ╝ to text.
рЏЮ-Wl,--hoge-fuga=piyoрЏЮ This is РИї-Wl,--hoge-fuga=piyoРИї
РЌЃ
РИїРИїРИї
The ­ЪЎ╝emphasis­ЪЎ╝ РДФstrongРДФ РђЌinsertedРђЌ ┬гdeleted┬г РДФ­ЪЎ╝strong & emphasis­ЪЎ╝РДФ text.
РИїРИїРИї

РИїРИїРИїc
__attribute__((­ЪЎ╝used­ЪЎ╝)) void _start(void)
{
    int ret = РДФmainРДФ();
    exit(ret);
    // РђЌno returnРђЌ
}
РИїРИїРИї

Рќ«Рќ« Text Decoration Terminator

The ­ЪЎ╝emphasisРЪа РДФstrongРЪа РђЌinsertedРЪа ┬гdeletedРЪа РДФ­ЪЎ╝strong & emphasisРЪаРЪа text.

The ­ЪЎ╝emphasis РДФstrong РђЌinserted ┬гdeletedРЪаРЪаРЪаРЪа text.


Рќ«Рќ« Color Decoration

The ­Ъћ┤color1РЪа ­ЪЪАcolor2РЪа ­ЪЪбcolor3РЪа ­Ъћхcolor4РЪа ­ЪЪБcolor5РЪа color text.

­ЪћхColor ­ЪЪБdeco­ЪћхraРЪаtionРЪа canРЪа be nested.

­ЪћхColor РДФstrongРДФРЪа or РДФStrong ­Ъћ┤color РЪаРДФ text.

РИїРИїРИї
The ­Ъћ┤color1РЪа ­ЪЪАcolor2РЪа ­ЪЪбcolor3РЪа ­Ъћхcolor4РЪа ­ЪЪБcolor5РЪа color text.

­ЪћхColor ­ЪЪБdeco­ЪћхraРЪаtionРЪа canРЪа be nested.

­ЪћхColor РДФstrongРДФРЪа or РДФStrong ­Ъћ┤color РЪаРДФ text.
РИїРИїРИї

This is РЪаnot decoРЪа text.

Рќ«Рќ« Image

Image in paragraph like ┬цimageРИе./tglyph_64.pngРИЕ.

Image in paragraph like ┬цimageРЪдalt="Alt Text" w="150px"РЪДРИе./tglyph_64.pngРИЕ.

Image in paragraph like ┬цimageРЪдalt="Alt Text" w="20%"РЪДРИе./tglyph_64.pngРИЕ.

Image in paragraph like ┬цimageРЪдw="150px"РЪДРИеimg/tglyph.pngРИЕ.

Image in paragraph like ┬цimageРЪдw="150px"РЪДРИе./img/tglyph.svgРИЕ.

Image in paragraph like ┬цimageРЪдw="180px"РЪДРИе./tglyph.drawio.svgРИЕ.

Рќ«Рќ« Include

==Start of include 1st==

┬цincludeРИе./sub/sub1.tglyphРИЕ

==End of include 1st==

==Start of include 2nd==

┬цincludeРИе./sub/sub1.tglyphРИЕ

==End of include 2nd==

==Start of include 3rd : other type document ==

┬цincludeРИе./sub2.mdРИЕ

==End of include 3rd ==

Рќ«Рќ« Keyboard / Button / Menu

Type ┬цkbdРИеCtrl AРИЕ right now.

Click ┬цbtnРИеOKРИЕ or ┬цbtnРИеCancelРИЕ.

Select ┬цmenuРИеEdit > Settings > <Language> > preferenceРИЕ to edit settings.

Рќ«Рќ« HyperLink

Search РИеhttps://www.yahoo.com/РИЕ !

For more information, check РЪдhereРЪДРИеhttps://www.google.com/РИЕ !

РИеhttps://www.yahoo.com/РИЕ and РИеhttps://www.google.com/РИЕ

Рќ«Рќ« CrossReference

Block markup section: РИеBlock-markupРИЕ!

РЪдHereРЪДРИеBlock-markupРИЕ is the same!

РЪдHereРЪДРИе#Block-markupРИЕ is the same too!

РИеblistРИЕ is referenced by id.

РЪдOrderd List SectionРЪДРИеolistРИЕ is referenced by id too.

Other document section: РИе./sub/sub1.tglyph#Section_1-2РИЕ

сђїРЪдРЪДРИесѓ╗сѓ»сѓисЃДсЃ│1-1РИЕсђЇсЂ«сѓѕсЂєсЂФIDсЂФсЂ»тцџУеђУфъТќЄтГЌсЂїСй┐сЂѕсЂЙсЂЎсђѓ

сѓ┐сѓцсЃѕсЃФсЂІсѓЅУЄфтІЋсЂДтЅ▓сѓіТї»сѓЅсѓїсѓІIDсЂїжЄЇУцЄсЂЎсѓІта┤тљѕсђЂ2сЂцуЏ«С╗ЦжЎЇсЂ«IDсЂФсЂ»жђБуЋфсЂїТї»сѓЅсѓїсЂЙсЂЎ№╝џ

Рђб РЪдSection NameРЪДРИеSection_NameРИЕ
Рђб РЪдSection Name (1)РЪДРИеSection_Name-1РИЕ
Рђб РЪдSection Name (2)РЪДРИеSection_Name-2РИЕ

Рќ«Рќ«Рќ« Section Name

aaa

Рќ«Рќ«Рќ« Section Name

bbb

Рќ«Рќ«Рќ« Section Name

ccc

Рќ«Рќ« Footnote

The important text. [^1] And the important text too. [^2]
Рђб[x] List item 1
Рђб[x] List item 2

Рђб[^1] This is footnote.
Рђб[^2] This is footnote too.

Рђб List item 3
Рђб List item 4

Рќ«Рќ« Refenrence / Bibliography

The important text. [#1] And the important text too. [#2]
Рђб[x] List item 1
Рђб[x] List item 2

Рђб[#1] The Awesome Document, 1990, Anonymous.
Рђб[#2] The theory of theory, 2000-01-01, Anonymous.
Рђб[#3] Unreferenced bibliograpy I, 2XXX-XX-XX, Anonymous.
Рђб[#4] Unreferenced bibliograpy II, 2XXX-XX-XX, Anonymous.

Рђб List item 3
Рђб List item 4

Рќ« Multibyte Support

Рќ«Рќ« сѓ╗сѓ»сѓисЃДсЃ│1-1

ТюгТќЄсЃЏсЃ│сЃќсЃ│сЂ╗сѓЊсЂХсѓЊText

РИїРИїРИї
ТюгТќЄсЃЏсЃ│сЃќсЃ│сЂ╗сѓЊсЂХсѓЊText
РИїРИїРИї

Рќ« Config

Рќ«Рќ« Replace

Hello, I am РЂЁauthorРЂє.

Replace in decoration text like РДФРЂЁauthorРЂєРДФ, РИїРЂЁvalРЂєРИї.

Рђб Replace in decoration text like РДФРЂЁauthorРЂєРДФ, РИїРЂЁvalРЂєРИї.

рЏЮReplace РЂЁauthorРЂєрЏЮ РИїРЂЁvalРЂєРИї
рЏЮReplace РИїРЂЁvalРЂєРИїрЏЮ РЂЁauthorРЂє

РИїРИїРИї
var = "РЂЁvalРЂє"
РИїРИїРИї

Рќ« Torture

Рќ«Рќ« CodeBlock indentation

Рђб РИїРИїРИїsh
  pushd ~
  cat .bashrc
  popd
  РИїРИїРИї
рЏЮTermрЏЮ РИїРИїРИїsh
       pushd ~
       cat .bashrc
       popd
       РИїРИїРИї

Рќ«Рќ« Long inline code

The РИї|code|РИї РИї|@#$%{^&*(})\!РИї text. And РИїlong_long_long_long codeРИї and РИїlonglonglonglonglonglonglonglonglonglonglonglonglonglonglonglonglonglonglonglong codeРИї text.

Рќ«Рќ« Section Lv.4
Рќ«Рќ«Рќ« dummy
Рќ«Рќ«Рќ«Рќ« This!
Body text.

Рќ«Рќ« Footnote

The important text. [^1] And the important text too. [^2]

The important text. [^a] And the important text too. [^b]

This is [not] important [(text)].

Рђб[^1] This is New footnote.
Рђб[^2] This is New footnote too.
Рђб[^a] This is New footnote three.
Рђб[^b] This is РИї|@#$%{^&*(})\!РИї.

Рђб[^b] This is РИї|@#$%{^&*(})\!РИї.

Рќ«Рќ« Figure numbering

┬цfigureРИеcaptionРИЕ
┬цimageРЪдalt="Alt Text"РЪДРИе./tglyph_64.pngРИЕ

┬цfigureРИеcaptionРИЕ
[Not Image.]

┬цfigureРИеcaptionРИЕ
| head11 | head12 | head13 |
| head21 | head22 | head23 |
|--------|--------|--------|
| data11 | data12 | data13 |
| data21 | data22 | data23 |
| data31 | data32 | data33 |

Рќ«Рќ« Basic Table Cell Merging

| Type | Size | Ptr / Align | РЈ┤ |
|---|---|---|---|
| IntРИїbyteРИї | 1 | 4 | 4 |
| РЈХ РИїshortРИї | 2 | 4 | РЈ┤ |
| РЈХ РИїintРИї | 4 | РЈХ | РЈ┤ |
| РЈХ РИїlongРИї | 8 | 4 | 4 |
| Float | 4 | 4 | 4 |
| РЈХ   | 8 | 4 | 4 |

Рќ«Рќ« Wide Table

|===РЪдalign="llx"РЪД
Рђб РђбРђб 128456789012345678901234567890
  РђбРђб abcdefg
  РђбРђб The РИїlong_long_long_long codeРИї and РИїlonglonglonglonglonglonglonglonglonglonglonglonglonglonglonglonglonglonglonglong codeРИї text.
===|

Рќ«Рќ« Merged Wide Table

РЪдwidths="1,1,1,2,1,1,1,1,1,1"РЪД
| head11 | head12 | head13 | head14 | head15 | head16 | head17 | head18 | head19 | РЈ┤      |
| head21 | РЈ┤      | РЈ┤      | head24 | РЈХ      | head26 | head27 | head28 | head29 | head2a |
|+-------|+------+|+------+|-------+|+------+|+------+|+------+|+------+|+------+|+------+|
| data11 | data12 | data13 | data14 | data15 | data16 | data17 | data18 | data19 | data1a |
| data21 | data22 | data23 | data24 | data25 | data26 | data27 | data28 | data29 | data2a |
| data31 | data32 longlong longlong text | РЈ┤      | data34 | data35 | data36 | data37 | data38 | data39 | data3a |
| data41 | data42 | data43 | data44 | data45 | data46 | data47 | data48 | data49 | data4a |

РЪдtype="long" fontsize="small"РЪД
| head11 | head12 | head13 | head14 | head15 | head16 | head17 | head18 | head19 | РЈ┤      |
| head21 | РЈ┤      | РЈ┤      | head24 | РЈХ      | head26 | head27 | head28 | head29 | head2a |
|:------:|:------:|:------:|:------:|:------:|:------:|:------:|:------:|:------:|:------:|
| data11 | data12 | data13 | data14 | data15 | data16 | data17 | data18 | data19 | data1a |
| data21 | data22 | data23 | data24 | data25 | data26 | data27 | data28 | data29 | data2a |
| data31 | data32 longlong longlong text | РЈ┤      | data34 | data35 | data36 | data37 | data38 | data39 | data3a |
| data41 | data42 | data43 | data44 | data45 | data46 | data47 | data48 | data49 | data4a |
| datax1 | datax2 | datax3 | datax4 | datax5 | datax6 | datax7 | datax8 | datax9 | dataxa |
| datax1 | datax2 | datax3 | datax4 | datax5 | datax6 | datax7 | datax8 | datax9 | dataxa |
| datax1 | datax2 | datax3 | datax4 | datax5 | datax6 | datax7 | datax8 | datax9 | dataxa |
| datax1 | datax2 | datax3 | datax4 | datax5 | datax6 | datax7 | datax8 | datax9 | dataxa |
| datax1 | datax2 | datax3 | datax4 | datax5 | datax6 | datax7 | datax8 | datax9 | dataxa |
| datax1 | datax2 | datax3 | datax4 | datax5 | datax6 | datax7 | datax8 | datax9 | dataxa |
| datax1 | datax2 | datax3 | datax4 | datax5 | datax6 | datax7 | datax8 | datax9 | dataxa |
| datax1 | datax2 | datax3 | datax4 | datax5 | datax6 | datax7 | datax8 | datax9 | dataxa |
| datax1 | datax2 | datax3 | datax4 | datax5 | datax6 | datax7 | datax8 | datax9 | dataxa |
| datax1 | datax2 | datax3 | datax4 | datax5 | datax6 | datax7 | datax8 | datax9 | dataxa |
| datax1 | datax2 | datax3 | datax4 | datax5 | datax6 | datax7 | datax8 | datax9 | dataxa |
| datax1 | datax2 | datax3 | datax4 | datax5 | datax6 | datax7 | datax8 | datax9 | dataxa |
| datax1 | datax2 | datax3 | datax4 | datax5 | datax6 | datax7 | datax8 | datax9 | dataxa |
| datax1 | datax2 | datax3 | datax4 | datax5 | datax6 | datax7 | datax8 | datax9 | dataxa |
| datax1 | datax2 | datax3 | datax4 | datax5 | datax6 | datax7 | datax8 | datax9 | dataxa |
| datax1 | datax2 | datax3 | datax4 | datax5 | datax6 | datax7 | datax8 | datax9 | dataxa |
| datax1 | datax2 | datax3 | datax4 | datax5 | datax6 | datax7 | datax8 | datax9 | dataxa |
| datax1 | datax2 | datax3 | datax4 | datax5 | datax6 | datax7 | datax8 | datax9 | dataxa |
| datax1 | datax2 | datax3 | datax4 | datax5 | datax6 | datax7 | datax8 | datax9 | dataxa |
| datax1 | datax2 | datax3 | datax4 | datax5 | datax6 | datax7 | datax8 | datax9 | dataxa |
| datax1 | datax2 | datax3 | datax4 | datax5 | datax6 | datax7 | datax8 | datax9 | dataxa |
| datax1 | datax2 | datax3 | datax4 | datax5 | datax6 | datax7 | datax8 | datax9 | dataxa |
| datax1 | datax2 | datax3 | datax4 | datax5 | datax6 | datax7 | datax8 | datax9 | dataxa |
| datax1 | datax2 | datax3 | datax4 | datax5 | datax6 | datax7 | datax8 | datax9 | dataxa |
| datax1 | datax2 | datax3 | datax4 | datax5 | datax6 | datax7 | datax8 | datax9 | dataxa |
| datax1 | datax2 | datax3 | datax4 | datax5 | datax6 | datax7 | datax8 | datax9 | dataxa |
| datax1 | datax2 | datax3 | datax4 | datax5 | datax6 | datax7 | datax8 | datax9 | dataxa |
| datax1 | datax2 | datax3 | datax4 | datax5 | datax6 | datax7 | datax8 | datax9 | dataxa |
| datax1 | datax2 | datax3 | datax4 | datax5 | datax6 | datax7 | datax8 | datax9 | dataxa |
| datax1 | datax2 | datax3 | datax4 | datax5 | datax6 | datax7 | datax8 | datax9 | dataxa |
| datay1 | datax2 | datax3 | datax4 | datax5 | datax6 | datax7 | datax8 | datax9 | dataxa |
| datay1 | datax2 | datax3 | datax4 | datax5 | datax6 | datax7 | datax8 | datax9 | dataxa |
| datay1 | datax2 | datax3 | datax4 | datax5 | datax6 | datax7 | datax8 | datax9 | dataxa |
| datay1 | datax2 | datax3 | datax4 | datax5 | datax6 | datax7 | datax8 | datax9 | dataxa |
| datay1 | datax2 | datax3 | datax4 | datax5 | datax6 | datax7 | datax8 | datax9 | dataxa |
| datay1 | datax2 | datax3 | datax4 | datax5 | datax6 | datax7 | datax8 | datax9 | dataxa |
| datay1 | datax2 | datax3 | datax4 | datax5 | datax6 | datax7 | datax8 | datax9 | dataxa |
| datay1 | datax2 | datax3 | datax4 | datax5 | datax6 | datax7 | datax8 | datax9 | dataxa |
| datay1 | datax2 | datax3 | datax4 | datax5 | datax6 | datax7 | datax8 | datax9 | dataxa |
| datay1 | datax2 | datax3 | datax4 | datax5 | datax6 | datax7 | datax8 | datax9 | dataxa |
| datay1 | datax2 | datax3 | datax4 | datax5 | datax6 | datax7 | datax8 | datax9 | dataxa |
| datay1 | datax2 | datax3 | datax4 | datax5 | datax6 | datax7 | datax8 | datax9 | dataxa |
| datay1 | datax2 | datax3 | datax4 | datax5 | datax6 | datax7 | datax8 | datax9 | dataxa |
| datay1 | datax2 | datax3 | datax4 | datax5 | datax6 | datax7 | datax8 | datax9 | dataxa |

Рќ«Рќ« Footnote within Table

The important text. [^_1] And the important text too. [^_2]

| head11 | head12 | head13 |
|--------|--------|--------|
| data11 | data12 [^X] | data13 |
| data21 | data22 | data23 [^Y] |

The important text. [^A] And the important text too. [^B]

Рќ«Рќ«Рќ« Repeat

| head11 | head12 | head13 |
|--------|--------|--------|
| data11 | data12 [^s] | data13 |
| data21 | data22 | data23 [^t] |

Рђб[^_1] This is New footnote.
Рђб[^_2] This is New footnote too.
Рђб[^X] Footnote 1-1 within Table
Рђб[^Y] Footnote 1-2 within Table
Рђб[^A] This is New footnote three.
Рђб[^B] This is РИї|@#$%{^&*(})\!РИї.
Рђб[^s] Footnote 2-1 within Table
Рђб[^t] Footnote 2-2 within Table

Рќ«Рќ« Long Table

|===РЪдtype="long"РЪД
Рђб РђбРђб 128456789012345678901234567890
  РђбРђб abcdefg
  РђбРђб abcdefg
Рђб РђбРђб 128456789012345678901234567890
  РђбРђб abcdefg
  РђбРђб abcdefg 0

     abcdefg

     abcdefg

     abcdefg

     abcdefg

     abcdefg

     abcdefg

     abcdefg

     abcdefg

     abcdefg 1

     abcdefg

     abcdefg

     abcdefg

     abcdefg

     abcdefg

     abcdefg

     abcdefg

     abcdefg

     abcdefg

     abcdefg 2

     abcdefg
Рђб РђбРђб 128456789012345678901234567890
  РђбРђб abcdefg
  РђбРђб abcdefg 0

     abcdefg

     abcdefg

     abcdefg

     abcdefg

     abcdefg

     abcdefg

     abcdefg

     abcdefg

     abcdefg 1

     abcdefg

     abcdefg

     abcdefg

     abcdefg

     abcdefg

     abcdefg

     abcdefg

     abcdefg

     abcdefg

     abcdefg 2

     abcdefg
Рђб РђбРђб 128456789012345678901234567890
  РђбРђб abcdefg
  РђбРђб РђбРђбРђб abcdefg 0
     РђбРђбРђб abcdefg
     РђбРђбРђб abcdefg
     РђбРђбРђб abcdefg
     РђбРђбРђб abcdefg
     РђбРђбРђб abcdefg
     РђбРђбРђб abcdefg
     РђбРђбРђб abcdefg
     РђбРђбРђб abcdefg
     РђбРђбРђб abcdefg 1
     РђбРђбРђб abcdefg
     РђбРђбРђб abcdefg
     РђбРђбРђб abcdefg
     РђбРђбРђб abcdefg
     РђбРђбРђб abcdefg
     РђбРђбРђб abcdefg
     РђбРђбРђб abcdefg
     РђбРђбРђб abcdefg
     РђбРђбРђб abcdefg
     РђбРђбРђб abcdefg 2
     РђбРђбРђб abcdefg
     РђбРђбРђб abcdefg
     РђбРђбРђб abcdefg
     РђбРђбРђб abcdefg
     РђбРђбРђб abcdefg
     РђбРђбРђб abcdefg
     РђбРђбРђб abcdefg
     РђбРђбРђб abcdefg
     РђбРђбРђб abcdefg
     РђбРђбРђб abcdefg 3
     РђбРђбРђб abcdefg
     РђбРђбРђб abcdefg
     РђбРђбРђб abcdefg
     РђбРђбРђб abcdefg
     РђбРђбРђб abcdefg
     РђбРђбРђб abcdefg
     РђбРђбРђб abcdefg
     РђбРђбРђб abcdefg
     РђбРђбРђб abcdefg
     РђбРђбРђб abcdefg 4
     РђбРђбРђб abcdefg
     РђбРђбРђб abcdefg
     РђбРђбРђб abcdefg
     РђбРђбРђб abcdefg
     РђбРђбРђб abcdefg
     РђбРђбРђб abcdefg
     РђбРђбРђб abcdefg
     РђбРђбРђб abcdefg
     РђбРђбРђб abcdefg
     РђбРђбРђб abcdefg 5
     РђбРђбРђб abcdefg
===|

Рќ«+ NoNum Section

No number, but list in toc.

Рќ« After NoNum

Noting.
